data_image0
_cell_length_a       4.6
_cell_length_b       10
_cell_length_c       3.5
_cell_angle_alpha    90
_cell_angle_beta     90
_cell_angle_gamma    90

_symmetry_space_group_name_H-M    "P 1"
_symmetry_int_tables_number       1

loop_
  _symmetry_equiv_pos_as_xyz
  'x, y, z'

loop_
  _atom_site_label
  _atom_site_occupancy
  _atom_site_fract_x
  _atom_site_fract_y
  _atom_site_fract_z
  _atom_site_thermal_displace_type
  _atom_site_B_iso_or_equiv
  _atom_site_type_symbol
  C1       1.0000 0.35197  0.42325  0.45575  Biso   1.000  C 
  C2       1.0000 0.66610  0.42325  0.45575  Biso   1.000  C 
  C3       1.0000 0.81805  0.54225  0.45575  Biso   1.000  C 
  C4       1.0000 0.66023  0.66255  0.45575  Biso   1.000  C 
  C5       1.0000 0.35805  0.66255  0.45575  Biso   1.000  C 
  C6       1.0000 0.20001  0.54225  0.45575  Biso   1.000  C 
  C7       1.0000 0.25914  0.28385  0.45546  Biso   1.000  C 
  C8       1.0000 0.50892  0.20265  0.45546  Biso   1.000  C 
  H1       1.0000 0.06654  0.25768  0.38002  Biso   1.000  H 
  H2       1.0000 0.50892  0.09375  0.45546  Biso   1.000  H 
  N1       1.0000 0.75892  0.28385  0.45546  Biso   1.000  N 
  H3       1.0000 0.90792  0.26957  0.64856  Biso   1.000  H 
  O1       1.0000 0.81436  0.78665  0.45575  Biso   1.000  O 
  H4       1.0000 0.80544  0.82585  0.70575  Biso   1.000  H 
  O2       1.0000 0.20370  0.78665  0.45575  Biso   1.000  O 
  H5       1.0000 0.33560  0.84845  0.26451  Biso   1.000  H 
