data_image0
_cell_length_a       48
_cell_length_b       20
_cell_length_c       10
_cell_angle_alpha    90
_cell_angle_beta     90
_cell_angle_gamma    90

_symmetry_space_group_name_H-M    "P 1"
_symmetry_int_tables_number       1

loop_
  _symmetry_equiv_pos_as_xyz
  'x, y, z'

loop_
  _atom_site_label
  _atom_site_occupancy
  _atom_site_fract_x
  _atom_site_fract_y
  _atom_site_fract_z
  _atom_site_thermal_displace_type
  _atom_site_B_iso_or_equiv
  _atom_site_type_symbol
  C1       1.0000 0.03373  0.21162  0.15951  Biso   1.000  C 
  C2       1.0000 0.06383  0.21162  0.15951  Biso   1.000  C 
  C3       1.0000 0.07840  0.27112  0.15951  Biso   1.000  C 
  C4       1.0000 0.06327  0.33127  0.15951  Biso   1.000  C 
  C5       1.0000 0.03431  0.33127  0.15951  Biso   1.000  C 
  C6       1.0000 0.01917  0.27112  0.15951  Biso   1.000  C 
  C7       1.0000 0.02483  0.14192  0.15941  Biso   1.000  C 
  C8       1.0000 0.04877  0.10132  0.15941  Biso   1.000  C 
  H1       1.0000 0.00638  0.12884  0.13301  Biso   1.000  H 
  H2       1.0000 0.04877  0.04687  0.15941  Biso   1.000  H 
  N1       1.0000 0.07273  0.14192  0.15941  Biso   1.000  N 
  H3       1.0000 0.08701  0.13479  0.22700  Biso   1.000  H 
  O1       1.0000 0.07804  0.39332  0.15951  Biso   1.000  O 
  H4       1.0000 0.07719  0.41292  0.24701  Biso   1.000  H 
  C9       1.0000 0.03373  0.71162  0.15951  Biso   1.000  C 
  C10      1.0000 0.06383  0.71162  0.15951  Biso   1.000  C 
  C11      1.0000 0.07840  0.77112  0.15951  Biso   1.000  C 
  C12      1.0000 0.06327  0.83127  0.15951  Biso   1.000  C 
  C13      1.0000 0.03431  0.83127  0.15951  Biso   1.000  C 
  C14      1.0000 0.01917  0.77112  0.15951  Biso   1.000  C 
  O2       1.0000 0.01952  0.89332  0.15951  Biso   1.000  O 
  H5       1.0000 0.03216  0.92422  0.09258  Biso   1.000  H 
  O3       1.0000 0.07804  0.89332  0.15951  Biso   1.000  O 
  H6       1.0000 0.07719  0.91292  0.24701  Biso   1.000  H 
  N2       1.0000 0.07273  0.64192  0.15941  Biso   1.000  N 
  C15      1.0000 0.04877  0.60132  0.15941  Biso   1.000  C 
  C16      1.0000 0.02483  0.64192  0.15941  Biso   1.000  C 
  H7       1.0000 0.00638  0.62884  0.13301  Biso   1.000  H 
  H8       1.0000 0.04877  0.54687  0.15941  Biso   1.000  H 
  H9       1.0000 0.08701  0.63479  0.22700  Biso   1.000  H 
  C17      1.0000 0.12956  0.21162  0.15951  Biso   1.000  C 
  C18      1.0000 0.15967  0.21162  0.15951  Biso   1.000  C 
  C19      1.0000 0.17423  0.27112  0.15951  Biso   1.000  C 
  C20      1.0000 0.15910  0.33127  0.15951  Biso   1.000  C 
  C21      1.0000 0.13015  0.33127  0.15951  Biso   1.000  C 
  C22      1.0000 0.11500  0.27112  0.15951  Biso   1.000  C 
  O4       1.0000 0.11535  0.39332  0.15951  Biso   1.000  O 
  H10      1.0000 0.12799  0.42422  0.09258  Biso   1.000  H 
  O5       1.0000 0.17388  0.39332  0.15951  Biso   1.000  O 
  H11      1.0000 0.17302  0.41292  0.24701  Biso   1.000  H 
  N3       1.0000 0.16856  0.14192  0.15941  Biso   1.000  N 
  C23      1.0000 0.14460  0.10132  0.15941  Biso   1.000  C 
  C24      1.0000 0.12067  0.14192  0.15941  Biso   1.000  C 
  H12      1.0000 0.10221  0.12884  0.13301  Biso   1.000  H 
  H13      1.0000 0.14460  0.04687  0.15941  Biso   1.000  H 
  H14      1.0000 0.18284  0.13479  0.22700  Biso   1.000  H 
  C25      1.0000 0.12956  0.71162  0.15951  Biso   1.000  C 
  C26      1.0000 0.15967  0.71162  0.15951  Biso   1.000  C 
  C27      1.0000 0.17423  0.77112  0.15951  Biso   1.000  C 
  C28      1.0000 0.15910  0.83127  0.15951  Biso   1.000  C 
  C29      1.0000 0.13015  0.83127  0.15951  Biso   1.000  C 
  C30      1.0000 0.11500  0.77112  0.15951  Biso   1.000  C 
  O6       1.0000 0.11535  0.89332  0.15951  Biso   1.000  O 
  H15      1.0000 0.12799  0.92422  0.09258  Biso   1.000  H 
  O7       1.0000 0.17388  0.89332  0.15951  Biso   1.000  O 
  H16      1.0000 0.17302  0.91292  0.24701  Biso   1.000  H 
  N4       1.0000 0.16856  0.64192  0.15941  Biso   1.000  N 
  C31      1.0000 0.14460  0.60132  0.15941  Biso   1.000  C 
  C32      1.0000 0.12067  0.64192  0.15941  Biso   1.000  C 
  H17      1.0000 0.10221  0.62884  0.13301  Biso   1.000  H 
  H18      1.0000 0.14460  0.54687  0.15941  Biso   1.000  H 
  H19      1.0000 0.18284  0.63479  0.22700  Biso   1.000  H 
  C33      1.0000 0.22540  0.21162  0.15951  Biso   1.000  C 
  C34      1.0000 0.25550  0.21162  0.15951  Biso   1.000  C 
  C35      1.0000 0.27006  0.27112  0.15951  Biso   1.000  C 
  C36      1.0000 0.25494  0.33127  0.15951  Biso   1.000  C 
  C37      1.0000 0.22598  0.33127  0.15951  Biso   1.000  C 
  C38      1.0000 0.21083  0.27112  0.15951  Biso   1.000  C 
  O8       1.0000 0.21119  0.39332  0.15951  Biso   1.000  O 
  H20      1.0000 0.22383  0.42422  0.09258  Biso   1.000  H 
  O9       1.0000 0.26971  0.39332  0.15951  Biso   1.000  O 
  H21      1.0000 0.26885  0.41292  0.24701  Biso   1.000  H 
  N5       1.0000 0.26440  0.14192  0.15941  Biso   1.000  N 
  C39      1.0000 0.24044  0.10132  0.15941  Biso   1.000  C 
  C40      1.0000 0.21650  0.14192  0.15941  Biso   1.000  C 
  H22      1.0000 0.19804  0.12884  0.13301  Biso   1.000  H 
  H23      1.0000 0.24044  0.04687  0.15941  Biso   1.000  H 
  H24      1.0000 0.27868  0.13479  0.22700  Biso   1.000  H 
  C41      1.0000 0.22540  0.71162  0.15951  Biso   1.000  C 
  C42      1.0000 0.25550  0.71162  0.15951  Biso   1.000  C 
  C43      1.0000 0.27006  0.77112  0.15951  Biso   1.000  C 
  C44      1.0000 0.25494  0.83127  0.15951  Biso   1.000  C 
  C45      1.0000 0.22598  0.83127  0.15951  Biso   1.000  C 
  C46      1.0000 0.21083  0.77112  0.15951  Biso   1.000  C 
  O10      1.0000 0.21119  0.89332  0.15951  Biso   1.000  O 
  H25      1.0000 0.22383  0.92422  0.09258  Biso   1.000  H 
  O11      1.0000 0.26971  0.89332  0.15951  Biso   1.000  O 
  H26      1.0000 0.26885  0.91292  0.24701  Biso   1.000  H 
  N6       1.0000 0.26440  0.64192  0.15941  Biso   1.000  N 
  C47      1.0000 0.24044  0.60132  0.15941  Biso   1.000  C 
  C48      1.0000 0.21650  0.64192  0.15941  Biso   1.000  C 
  H27      1.0000 0.19804  0.62884  0.13301  Biso   1.000  H 
  H28      1.0000 0.24044  0.54687  0.15941  Biso   1.000  H 
  H29      1.0000 0.27868  0.63479  0.22700  Biso   1.000  H 
  C49      1.0000 0.32123  0.21162  0.15951  Biso   1.000  C 
  C50      1.0000 0.35133  0.21162  0.15951  Biso   1.000  C 
  C51      1.0000 0.36590  0.27112  0.15951  Biso   1.000  C 
  C52      1.0000 0.35077  0.33127  0.15951  Biso   1.000  C 
  C53      1.0000 0.32181  0.33127  0.15951  Biso   1.000  C 
  C54      1.0000 0.30667  0.27112  0.15951  Biso   1.000  C 
  O12      1.0000 0.30702  0.39332  0.15951  Biso   1.000  O 
  H30      1.0000 0.31966  0.42422  0.09258  Biso   1.000  H 
  O13      1.0000 0.36554  0.39332  0.15951  Biso   1.000  O 
  H31      1.0000 0.36469  0.41292  0.24701  Biso   1.000  H 
  N7       1.0000 0.36023  0.14192  0.15941  Biso   1.000  N 
  C55      1.0000 0.33627  0.10132  0.15941  Biso   1.000  C 
  C56      1.0000 0.31233  0.14192  0.15941  Biso   1.000  C 
  H32      1.0000 0.29388  0.12884  0.13301  Biso   1.000  H 
  H33      1.0000 0.33627  0.04687  0.15941  Biso   1.000  H 
  H34      1.0000 0.37451  0.13479  0.22700  Biso   1.000  H 
  C57      1.0000 0.32123  0.71162  0.15951  Biso   1.000  C 
  C58      1.0000 0.35133  0.71162  0.15951  Biso   1.000  C 
  C59      1.0000 0.36590  0.77112  0.15951  Biso   1.000  C 
  C60      1.0000 0.35077  0.83127  0.15951  Biso   1.000  C 
  C61      1.0000 0.32181  0.83127  0.15951  Biso   1.000  C 
  C62      1.0000 0.30667  0.77112  0.15951  Biso   1.000  C 
  O14      1.0000 0.30702  0.89332  0.15951  Biso   1.000  O 
  H35      1.0000 0.31966  0.92422  0.09258  Biso   1.000  H 
  O15      1.0000 0.36554  0.89332  0.15951  Biso   1.000  O 
  H36      1.0000 0.36469  0.91292  0.24701  Biso   1.000  H 
  N8       1.0000 0.36023  0.64192  0.15941  Biso   1.000  N 
  C63      1.0000 0.33627  0.60132  0.15941  Biso   1.000  C 
  C64      1.0000 0.31233  0.64192  0.15941  Biso   1.000  C 
  H37      1.0000 0.29388  0.62884  0.13301  Biso   1.000  H 
  H38      1.0000 0.33627  0.54687  0.15941  Biso   1.000  H 
  H39      1.0000 0.37451  0.63479  0.22700  Biso   1.000  H 
  C65      1.0000 0.41706  0.21162  0.15951  Biso   1.000  C 
  C66      1.0000 0.44717  0.21162  0.15951  Biso   1.000  C 
  C67      1.0000 0.46173  0.27112  0.15951  Biso   1.000  C 
  C68      1.0000 0.44660  0.33127  0.15951  Biso   1.000  C 
  C69      1.0000 0.41765  0.33127  0.15951  Biso   1.000  C 
  C70      1.0000 0.40250  0.27112  0.15951  Biso   1.000  C 
  O16      1.0000 0.40285  0.39332  0.15951  Biso   1.000  O 
  H40      1.0000 0.41549  0.42422  0.09258  Biso   1.000  H 
  O17      1.0000 0.46138  0.39332  0.15951  Biso   1.000  O 
  H41      1.0000 0.46052  0.41292  0.24701  Biso   1.000  H 
  N9       1.0000 0.45606  0.14192  0.15941  Biso   1.000  N 
  C71      1.0000 0.43210  0.10132  0.15941  Biso   1.000  C 
  C72      1.0000 0.40817  0.14192  0.15941  Biso   1.000  C 
  H42      1.0000 0.38971  0.12884  0.13301  Biso   1.000  H 
  H43      1.0000 0.43210  0.04687  0.15941  Biso   1.000  H 
  H44      1.0000 0.47034  0.13479  0.22700  Biso   1.000  H 
  C73      1.0000 0.41706  0.71162  0.15951  Biso   1.000  C 
  C74      1.0000 0.44717  0.71162  0.15951  Biso   1.000  C 
  C75      1.0000 0.46173  0.77112  0.15951  Biso   1.000  C 
  C76      1.0000 0.44660  0.83127  0.15951  Biso   1.000  C 
  C77      1.0000 0.41765  0.83127  0.15951  Biso   1.000  C 
  C78      1.0000 0.40250  0.77112  0.15951  Biso   1.000  C 
  O18      1.0000 0.40285  0.89332  0.15951  Biso   1.000  O 
  H45      1.0000 0.41549  0.92422  0.09258  Biso   1.000  H 
  O19      1.0000 0.46138  0.89332  0.15951  Biso   1.000  O 
  H46      1.0000 0.46052  0.91292  0.24701  Biso   1.000  H 
  N10      1.0000 0.45606  0.64192  0.15941  Biso   1.000  N 
  C79      1.0000 0.43210  0.60132  0.15941  Biso   1.000  C 
  C80      1.0000 0.40817  0.64192  0.15941  Biso   1.000  C 
  H47      1.0000 0.38971  0.62884  0.13301  Biso   1.000  H 
  H48      1.0000 0.43210  0.54687  0.15941  Biso   1.000  H 
  H49      1.0000 0.47034  0.63479  0.22700  Biso   1.000  H 
  C81      1.0000 0.51290  0.21162  0.15951  Biso   1.000  C 
  C82      1.0000 0.54300  0.21162  0.15951  Biso   1.000  C 
  C83      1.0000 0.55756  0.27112  0.15951  Biso   1.000  C 
  C84      1.0000 0.54244  0.33127  0.15951  Biso   1.000  C 
  C85      1.0000 0.51348  0.33127  0.15951  Biso   1.000  C 
  C86      1.0000 0.49833  0.27112  0.15951  Biso   1.000  C 
  O20      1.0000 0.49869  0.39332  0.15951  Biso   1.000  O 
  H50      1.0000 0.51133  0.42422  0.09258  Biso   1.000  H 
  O21      1.0000 0.55721  0.39332  0.15951  Biso   1.000  O 
  H51      1.0000 0.55635  0.41292  0.24701  Biso   1.000  H 
  N11      1.0000 0.55190  0.14192  0.15941  Biso   1.000  N 
  C87      1.0000 0.52794  0.10132  0.15941  Biso   1.000  C 
  C88      1.0000 0.50400  0.14192  0.15941  Biso   1.000  C 
  H52      1.0000 0.48554  0.12884  0.13301  Biso   1.000  H 
  H53      1.0000 0.52794  0.04687  0.15941  Biso   1.000  H 
  H54      1.0000 0.56618  0.13479  0.22700  Biso   1.000  H 
  C89      1.0000 0.51290  0.71162  0.15951  Biso   1.000  C 
  C90      1.0000 0.54300  0.71162  0.15951  Biso   1.000  C 
  C91      1.0000 0.55756  0.77112  0.15951  Biso   1.000  C 
  C92      1.0000 0.54244  0.83127  0.15951  Biso   1.000  C 
  C93      1.0000 0.51348  0.83127  0.15951  Biso   1.000  C 
  C94      1.0000 0.49833  0.77112  0.15951  Biso   1.000  C 
  O22      1.0000 0.49869  0.89332  0.15951  Biso   1.000  O 
  H55      1.0000 0.51133  0.92422  0.09258  Biso   1.000  H 
  O23      1.0000 0.55721  0.89332  0.15951  Biso   1.000  O 
  H56      1.0000 0.55635  0.91292  0.24701  Biso   1.000  H 
  N12      1.0000 0.55190  0.64192  0.15941  Biso   1.000  N 
  C95      1.0000 0.52794  0.60132  0.15941  Biso   1.000  C 
  C96      1.0000 0.50400  0.64192  0.15941  Biso   1.000  C 
  H57      1.0000 0.48554  0.62884  0.13301  Biso   1.000  H 
  H58      1.0000 0.52794  0.54687  0.15941  Biso   1.000  H 
  H59      1.0000 0.56618  0.63479  0.22700  Biso   1.000  H 
  C97      1.0000 0.60873  0.21162  0.15951  Biso   1.000  C 
  C98      1.0000 0.63883  0.21162  0.15951  Biso   1.000  C 
  C99      1.0000 0.65340  0.27112  0.15951  Biso   1.000  C 
  C100     1.0000 0.63827  0.33127  0.15951  Biso   1.000  C 
  C101     1.0000 0.60931  0.33127  0.15951  Biso   1.000  C 
  C102     1.0000 0.59417  0.27112  0.15951  Biso   1.000  C 
  O24      1.0000 0.59452  0.39332  0.15951  Biso   1.000  O 
  H60      1.0000 0.60716  0.42422  0.09258  Biso   1.000  H 
  O25      1.0000 0.65304  0.39332  0.15951  Biso   1.000  O 
  H61      1.0000 0.65219  0.41292  0.24701  Biso   1.000  H 
  N13      1.0000 0.64773  0.14192  0.15941  Biso   1.000  N 
  C103     1.0000 0.62377  0.10132  0.15941  Biso   1.000  C 
  C104     1.0000 0.59983  0.14192  0.15941  Biso   1.000  C 
  H62      1.0000 0.58138  0.12884  0.13301  Biso   1.000  H 
  H63      1.0000 0.62377  0.04687  0.15941  Biso   1.000  H 
  H64      1.0000 0.66201  0.13479  0.22700  Biso   1.000  H 
  C105     1.0000 0.60873  0.71162  0.15951  Biso   1.000  C 
  C106     1.0000 0.63883  0.71162  0.15951  Biso   1.000  C 
  C107     1.0000 0.65340  0.77112  0.15951  Biso   1.000  C 
  C108     1.0000 0.63827  0.83127  0.15951  Biso   1.000  C 
  C109     1.0000 0.60931  0.83127  0.15951  Biso   1.000  C 
  C110     1.0000 0.59417  0.77112  0.15951  Biso   1.000  C 
  O26      1.0000 0.59452  0.89332  0.15951  Biso   1.000  O 
  H65      1.0000 0.60716  0.92422  0.09258  Biso   1.000  H 
  O27      1.0000 0.65304  0.89332  0.15951  Biso   1.000  O 
  H66      1.0000 0.65219  0.91292  0.24701  Biso   1.000  H 
  N14      1.0000 0.64773  0.64192  0.15941  Biso   1.000  N 
  C111     1.0000 0.62377  0.60132  0.15941  Biso   1.000  C 
  C112     1.0000 0.59983  0.64192  0.15941  Biso   1.000  C 
  H67      1.0000 0.58138  0.62884  0.13301  Biso   1.000  H 
  H68      1.0000 0.62377  0.54687  0.15941  Biso   1.000  H 
  H69      1.0000 0.66201  0.63479  0.22700  Biso   1.000  H 
  C113     1.0000 0.70456  0.21162  0.15951  Biso   1.000  C 
  C114     1.0000 0.73467  0.21162  0.15951  Biso   1.000  C 
  C115     1.0000 0.74923  0.27112  0.15951  Biso   1.000  C 
  C116     1.0000 0.73410  0.33127  0.15951  Biso   1.000  C 
  C117     1.0000 0.70515  0.33127  0.15951  Biso   1.000  C 
  C118     1.0000 0.69000  0.27112  0.15951  Biso   1.000  C 
  O28      1.0000 0.69035  0.39332  0.15951  Biso   1.000  O 
  H70      1.0000 0.70299  0.42422  0.09258  Biso   1.000  H 
  O29      1.0000 0.74888  0.39332  0.15951  Biso   1.000  O 
  H71      1.0000 0.74802  0.41292  0.24701  Biso   1.000  H 
  N15      1.0000 0.74356  0.14192  0.15941  Biso   1.000  N 
  C119     1.0000 0.71960  0.10132  0.15941  Biso   1.000  C 
  C120     1.0000 0.69567  0.14192  0.15941  Biso   1.000  C 
  H72      1.0000 0.67721  0.12884  0.13301  Biso   1.000  H 
  H73      1.0000 0.71960  0.04687  0.15941  Biso   1.000  H 
  H74      1.0000 0.75784  0.13479  0.22700  Biso   1.000  H 
  C121     1.0000 0.70456  0.71162  0.15951  Biso   1.000  C 
  C122     1.0000 0.73467  0.71162  0.15951  Biso   1.000  C 
  C123     1.0000 0.74923  0.77112  0.15951  Biso   1.000  C 
  C124     1.0000 0.73410  0.83127  0.15951  Biso   1.000  C 
  C125     1.0000 0.70515  0.83127  0.15951  Biso   1.000  C 
  C126     1.0000 0.69000  0.77112  0.15951  Biso   1.000  C 
  O30      1.0000 0.69035  0.89332  0.15951  Biso   1.000  O 
  H75      1.0000 0.70299  0.92422  0.09258  Biso   1.000  H 
  O31      1.0000 0.74888  0.89332  0.15951  Biso   1.000  O 
  H76      1.0000 0.74802  0.91292  0.24701  Biso   1.000  H 
  N16      1.0000 0.74356  0.64192  0.15941  Biso   1.000  N 
  C127     1.0000 0.71960  0.60132  0.15941  Biso   1.000  C 
  C128     1.0000 0.69567  0.64192  0.15941  Biso   1.000  C 
  H77      1.0000 0.67721  0.62884  0.13301  Biso   1.000  H 
  H78      1.0000 0.71960  0.54687  0.15941  Biso   1.000  H 
  H79      1.0000 0.75784  0.63479  0.22700  Biso   1.000  H 
  C129     1.0000 0.80040  0.21162  0.15951  Biso   1.000  C 
  C130     1.0000 0.83050  0.21162  0.15951  Biso   1.000  C 
  C131     1.0000 0.84506  0.27112  0.15951  Biso   1.000  C 
  C132     1.0000 0.82994  0.33127  0.15951  Biso   1.000  C 
  C133     1.0000 0.80098  0.33127  0.15951  Biso   1.000  C 
  C134     1.0000 0.78583  0.27112  0.15951  Biso   1.000  C 
  O32      1.0000 0.78619  0.39332  0.15951  Biso   1.000  O 
  H80      1.0000 0.79883  0.42422  0.09258  Biso   1.000  H 
  O33      1.0000 0.84471  0.39332  0.15951  Biso   1.000  O 
  H81      1.0000 0.84385  0.41292  0.24701  Biso   1.000  H 
  N17      1.0000 0.83940  0.14192  0.15941  Biso   1.000  N 
  C135     1.0000 0.81544  0.10132  0.15941  Biso   1.000  C 
  C136     1.0000 0.79150  0.14192  0.15941  Biso   1.000  C 
  H82      1.0000 0.77304  0.12884  0.13301  Biso   1.000  H 
  H83      1.0000 0.81544  0.04687  0.15941  Biso   1.000  H 
  H84      1.0000 0.85368  0.13479  0.22700  Biso   1.000  H 
  C137     1.0000 0.80040  0.71162  0.15951  Biso   1.000  C 
  C138     1.0000 0.83050  0.71162  0.15951  Biso   1.000  C 
  C139     1.0000 0.84506  0.77112  0.15951  Biso   1.000  C 
  C140     1.0000 0.82994  0.83127  0.15951  Biso   1.000  C 
  C141     1.0000 0.80098  0.83127  0.15951  Biso   1.000  C 
  C142     1.0000 0.78583  0.77112  0.15951  Biso   1.000  C 
  O34      1.0000 0.78619  0.89332  0.15951  Biso   1.000  O 
  H85      1.0000 0.79883  0.92422  0.09258  Biso   1.000  H 
  O35      1.0000 0.84471  0.89332  0.15951  Biso   1.000  O 
  H86      1.0000 0.84385  0.91292  0.24701  Biso   1.000  H 
  N18      1.0000 0.83940  0.64192  0.15941  Biso   1.000  N 
  C143     1.0000 0.81544  0.60132  0.15941  Biso   1.000  C 
  C144     1.0000 0.79150  0.64192  0.15941  Biso   1.000  C 
  H87      1.0000 0.77304  0.62884  0.13301  Biso   1.000  H 
  H88      1.0000 0.81544  0.54687  0.15941  Biso   1.000  H 
  H89      1.0000 0.85368  0.63479  0.22700  Biso   1.000  H 
  C145     1.0000 0.89623  0.21162  0.15951  Biso   1.000  C 
  C146     1.0000 0.92633  0.21162  0.15951  Biso   1.000  C 
  C147     1.0000 0.94090  0.27112  0.15951  Biso   1.000  C 
  C148     1.0000 0.92577  0.33127  0.15951  Biso   1.000  C 
  C149     1.0000 0.89681  0.33127  0.15951  Biso   1.000  C 
  C150     1.0000 0.88167  0.27112  0.15951  Biso   1.000  C 
  O36      1.0000 0.88202  0.39332  0.15951  Biso   1.000  O 
  H90      1.0000 0.89466  0.42422  0.09258  Biso   1.000  H 
  O37      1.0000 0.94054  0.39332  0.15951  Biso   1.000  O 
  H91      1.0000 0.93969  0.41292  0.24701  Biso   1.000  H 
  N19      1.0000 0.93523  0.14192  0.15941  Biso   1.000  N 
  C151     1.0000 0.91127  0.10132  0.15941  Biso   1.000  C 
  C152     1.0000 0.88733  0.14192  0.15941  Biso   1.000  C 
  H92      1.0000 0.86888  0.12884  0.13301  Biso   1.000  H 
  H93      1.0000 0.91127  0.04687  0.15941  Biso   1.000  H 
  H94      1.0000 0.94951  0.13479  0.22700  Biso   1.000  H 
  C153     1.0000 0.89623  0.71162  0.15951  Biso   1.000  C 
  C154     1.0000 0.92633  0.71162  0.15951  Biso   1.000  C 
  C155     1.0000 0.94090  0.77112  0.15951  Biso   1.000  C 
  C156     1.0000 0.92577  0.83127  0.15951  Biso   1.000  C 
  C157     1.0000 0.89681  0.83127  0.15951  Biso   1.000  C 
  C158     1.0000 0.88167  0.77112  0.15951  Biso   1.000  C 
  O38      1.0000 0.88202  0.89332  0.15951  Biso   1.000  O 
  H95      1.0000 0.89466  0.92422  0.09258  Biso   1.000  H 
  O39      1.0000 0.94054  0.89332  0.15951  Biso   1.000  O 
  H96      1.0000 0.93969  0.91292  0.24701  Biso   1.000  H 
  N20      1.0000 0.93523  0.64192  0.15941  Biso   1.000  N 
  C159     1.0000 0.91127  0.60132  0.15941  Biso   1.000  C 
  C160     1.0000 0.88733  0.64192  0.15941  Biso   1.000  C 
  H97      1.0000 0.86888  0.62884  0.13301  Biso   1.000  H 
  H98      1.0000 0.91127  0.54687  0.15941  Biso   1.000  H 
  H99      1.0000 0.94951  0.63479  0.22700  Biso   1.000  H 
  N21      1.0000 0.00567  0.36037  0.39251  Biso   1.000  N 
  C161     1.0000 0.02135  0.40362  0.48441  Biso   1.000  C 
  C162     1.0000 0.01825  0.39607  0.62301  Biso   1.000  C 
  C163     1.0000 0.03321  0.43732  0.71061  Biso   1.000  C 
  C164     1.0000 0.05127  0.48617  0.65971  Biso   1.000  C 
  C165     1.0000 0.05438  0.49372  0.52111  Biso   1.000  C 
  C166     1.0000 0.03942  0.45247  0.43351  Biso   1.000  C 
  H100     1.0000 0.04179  0.45822  0.32781  Biso   1.000  H 
  H101     1.0000 0.06817  0.53097  0.48231  Biso   1.000  H 
  C167     1.0000 0.06771  0.53147  0.75601  Biso   1.000  C 
  H102     1.0000 0.07177  0.50502  0.84691  Biso   1.000  H 
  H103     1.0000 0.05575  0.57537  0.77741  Biso   1.000  H 
  H104     1.0000 0.08702  0.54557  0.71051  Biso   1.000  H 
  N22      1.0000 0.02996  0.42942  0.85591  Biso   1.000  N 
  H105     1.0000 0.01075  0.41292  0.87611  Biso   1.000  H 
  C168     1.0000 0.05052  0.38092  0.90551  Biso   1.000  C 
  H106     1.0000 0.04585  0.35087  0.99111  Biso   1.000  H 
  O40      1.0000 0.07677  0.37392  0.83931  Biso   1.000  O 
  H107     1.0000 0.00446  0.35882  0.66181  Biso   1.000  H 
  C169     1.0000 0.00008  0.39672  0.26761  Biso   1.000  C 
  H108     1.0000 0.98148  0.42577  0.25771  Biso   1.000  H 
  O41      1.0000 0.01952  0.39332  0.15951  Biso   1.000  O 
  H109     1.0000 0.01683  0.31937  0.37251  Biso   1.000  H 
  C170     1.0000 0.12295  0.39700  0.77724  Biso   1.000  C 
  H110     1.0000 0.12144  0.41218  0.67482  Biso   1.000  H 
  H111     1.0000 0.12194  0.44016  0.84040  Biso   1.000  H 
  C171     1.0000 0.09869  0.34952  0.81101  Biso   1.000  C 
  H112     1.0000 0.10018  0.33441  0.91339  Biso   1.000  H 
  H113     1.0000 0.10413  0.30277  0.61939  Biso   1.000  H 
  C172     1.0000 0.10013  0.28748  0.72015  Biso   1.000  C 
  H114     1.0000 0.08072  0.26122  0.72426  Biso   1.000  H 
  O42      1.0000 0.12204  0.24450  0.76478  Biso   1.000  O 
  C173     1.0000 0.11706  0.17801  0.71801  Biso   1.000  C 
  H115     1.0000 0.09887  0.15830  0.76554  Biso   1.000  H 
  H116     1.0000 0.11398  0.17882  0.61201  Biso   1.000  H 
  C174     1.0000 0.14233  0.13361  0.75155  Biso   1.000  C 
  H117     1.0000 0.16021  0.15118  0.69821  Biso   1.000  H 
  H118     1.0000 0.17804  0.15830  0.76554  Biso   1.000  H 
  C175     1.0000 0.19623  0.17801  0.71801  Biso   1.000  C 
  O43      1.0000 0.20121  0.24450  0.76478  Biso   1.000  O 
  C176     1.0000 0.17929  0.28748  0.72015  Biso   1.000  C 
  C177     1.0000 0.17785  0.34952  0.81101  Biso   1.000  C 
  O44      1.0000 0.14883  0.36320  0.79829  Biso   1.000  O 
  C178     1.0000 0.20211  0.39700  0.77724  Biso   1.000  C 
  H119     1.0000 0.20061  0.41218  0.67482  Biso   1.000  H 
  H120     1.0000 0.20111  0.44016  0.84040  Biso   1.000  H 
  O45      1.0000 0.22800  0.36320  0.79829  Biso   1.000  O 
  C179     1.0000 0.25702  0.34952  0.81101  Biso   1.000  C 
  C180     1.0000 0.28128  0.39700  0.77724  Biso   1.000  C 
  H121     1.0000 0.27978  0.41218  0.67482  Biso   1.000  H 
  H122     1.0000 0.28028  0.44016  0.84040  Biso   1.000  H 
  O46      1.0000 0.30716  0.36320  0.79829  Biso   1.000  O 
  C181     1.0000 0.33619  0.34952  0.81101  Biso   1.000  C 
  C182     1.0000 0.36045  0.39700  0.77724  Biso   1.000  C 
  H123     1.0000 0.35894  0.41218  0.67482  Biso   1.000  H 
  H124     1.0000 0.35944  0.44016  0.84040  Biso   1.000  H 
  O47      1.0000 0.38633  0.36320  0.79829  Biso   1.000  O 
  C183     1.0000 0.41535  0.34952  0.81101  Biso   1.000  C 
  C184     1.0000 0.43961  0.39700  0.77724  Biso   1.000  C 
  H125     1.0000 0.43811  0.41218  0.67482  Biso   1.000  H 
  H126     1.0000 0.43861  0.44016  0.84040  Biso   1.000  H 
  O48      1.0000 0.46550  0.36320  0.79829  Biso   1.000  O 
  C185     1.0000 0.49452  0.34952  0.81101  Biso   1.000  C 
  C186     1.0000 0.51878  0.39700  0.77724  Biso   1.000  C 
  H127     1.0000 0.51728  0.41218  0.67482  Biso   1.000  H 
  H128     1.0000 0.51778  0.44016  0.84040  Biso   1.000  H 
  O49      1.0000 0.54466  0.36320  0.79829  Biso   1.000  O 
  C187     1.0000 0.57369  0.34952  0.81101  Biso   1.000  C 
  C188     1.0000 0.59795  0.39700  0.77724  Biso   1.000  C 
  H129     1.0000 0.59644  0.41218  0.67482  Biso   1.000  H 
  H130     1.0000 0.59694  0.44016  0.84040  Biso   1.000  H 
  O50      1.0000 0.62383  0.36320  0.79829  Biso   1.000  O 
  C189     1.0000 0.65285  0.34952  0.81101  Biso   1.000  C 
  C190     1.0000 0.67711  0.39700  0.77724  Biso   1.000  C 
  H131     1.0000 0.67561  0.41218  0.67482  Biso   1.000  H 
  H132     1.0000 0.67611  0.44016  0.84040  Biso   1.000  H 
  O51      1.0000 0.70300  0.36320  0.79829  Biso   1.000  O 
  C191     1.0000 0.73202  0.34952  0.81101  Biso   1.000  C 
  C192     1.0000 0.75628  0.39700  0.77724  Biso   1.000  C 
  H133     1.0000 0.75478  0.41218  0.67482  Biso   1.000  H 
  H134     1.0000 0.75528  0.44016  0.84040  Biso   1.000  H 
  O52      1.0000 0.78216  0.36320  0.79829  Biso   1.000  O 
  C193     1.0000 0.81119  0.34952  0.81101  Biso   1.000  C 
  C194     1.0000 0.83545  0.39700  0.77724  Biso   1.000  C 
  H135     1.0000 0.83394  0.41218  0.67482  Biso   1.000  H 
  H136     1.0000 0.83444  0.44016  0.84040  Biso   1.000  H 
  O53      1.0000 0.86133  0.36320  0.79829  Biso   1.000  O 
  H137     1.0000 0.88286  0.35449  0.80449  Biso   1.000  H 
  H138     1.0000 0.81268  0.33441  0.91339  Biso   1.000  H 
  H139     1.0000 0.81663  0.30277  0.61939  Biso   1.000  H 
  C195     1.0000 0.81263  0.28748  0.72015  Biso   1.000  C 
  H140     1.0000 0.79322  0.26122  0.72426  Biso   1.000  H 
  O54      1.0000 0.83454  0.24450  0.76478  Biso   1.000  O 
  C196     1.0000 0.82956  0.17801  0.71801  Biso   1.000  C 
  H141     1.0000 0.81137  0.15830  0.76554  Biso   1.000  H 
  H142     1.0000 0.79354  0.15118  0.69821  Biso   1.000  H 
  C197     1.0000 0.77566  0.13361  0.75155  Biso   1.000  C 
  C198     1.0000 0.75039  0.17801  0.71801  Biso   1.000  C 
  O55      1.0000 0.75538  0.24450  0.76478  Biso   1.000  O 
  C199     1.0000 0.73346  0.28748  0.72015  Biso   1.000  C 
  H143     1.0000 0.73747  0.30277  0.61939  Biso   1.000  H 
  H144     1.0000 0.73352  0.33441  0.91339  Biso   1.000  H 
  H145     1.0000 0.71405  0.26122  0.72426  Biso   1.000  H 
  H146     1.0000 0.73221  0.15830  0.76554  Biso   1.000  H 
  H147     1.0000 0.71438  0.15118  0.69821  Biso   1.000  H 
  C200     1.0000 0.69650  0.13361  0.75155  Biso   1.000  C 
  C201     1.0000 0.67123  0.17801  0.71801  Biso   1.000  C 
  O56      1.0000 0.67621  0.24450  0.76478  Biso   1.000  O 
  C202     1.0000 0.65429  0.28748  0.72015  Biso   1.000  C 
  H148     1.0000 0.65830  0.30277  0.61939  Biso   1.000  H 
  H149     1.0000 0.65435  0.33441  0.91339  Biso   1.000  H 
  H150     1.0000 0.63489  0.26122  0.72426  Biso   1.000  H 
  H151     1.0000 0.65304  0.15830  0.76554  Biso   1.000  H 
  H152     1.0000 0.63521  0.15118  0.69821  Biso   1.000  H 
  C203     1.0000 0.61733  0.13361  0.75155  Biso   1.000  C 
  C204     1.0000 0.59206  0.17801  0.71801  Biso   1.000  C 
  O57      1.0000 0.59704  0.24450  0.76478  Biso   1.000  O 
  C205     1.0000 0.57513  0.28748  0.72015  Biso   1.000  C 
  H153     1.0000 0.57913  0.30277  0.61939  Biso   1.000  H 
  H154     1.0000 0.57518  0.33441  0.91339  Biso   1.000  H 
  H155     1.0000 0.55572  0.26122  0.72426  Biso   1.000  H 
  H156     1.0000 0.57387  0.15830  0.76554  Biso   1.000  H 
  H157     1.0000 0.55604  0.15118  0.69821  Biso   1.000  H 
  C206     1.0000 0.53816  0.13361  0.75155  Biso   1.000  C 
  C207     1.0000 0.51289  0.17801  0.71801  Biso   1.000  C 
  O58      1.0000 0.51788  0.24450  0.76478  Biso   1.000  O 
  C208     1.0000 0.49596  0.28748  0.72015  Biso   1.000  C 
  H158     1.0000 0.49997  0.30277  0.61939  Biso   1.000  H 
  H159     1.0000 0.49602  0.33441  0.91339  Biso   1.000  H 
  H160     1.0000 0.47655  0.26122  0.72426  Biso   1.000  H 
  H161     1.0000 0.49471  0.15830  0.76554  Biso   1.000  H 
  H162     1.0000 0.47688  0.15118  0.69821  Biso   1.000  H 
  C209     1.0000 0.45900  0.13361  0.75155  Biso   1.000  C 
  C210     1.0000 0.43373  0.17801  0.71801  Biso   1.000  C 
  O59      1.0000 0.43871  0.24450  0.76478  Biso   1.000  O 
  C211     1.0000 0.41679  0.28748  0.72015  Biso   1.000  C 
  H163     1.0000 0.42080  0.30277  0.61939  Biso   1.000  H 
  H164     1.0000 0.41685  0.33441  0.91339  Biso   1.000  H 
  H165     1.0000 0.39739  0.26122  0.72426  Biso   1.000  H 
  H166     1.0000 0.41554  0.15830  0.76554  Biso   1.000  H 
  H167     1.0000 0.39771  0.15118  0.69821  Biso   1.000  H 
  C212     1.0000 0.37983  0.13361  0.75155  Biso   1.000  C 
  C213     1.0000 0.35456  0.17801  0.71801  Biso   1.000  C 
  O60      1.0000 0.35954  0.24450  0.76478  Biso   1.000  O 
  C214     1.0000 0.33763  0.28748  0.72015  Biso   1.000  C 
  H168     1.0000 0.34163  0.30277  0.61939  Biso   1.000  H 
  H169     1.0000 0.33768  0.33441  0.91339  Biso   1.000  H 
  H170     1.0000 0.31822  0.26122  0.72426  Biso   1.000  H 
  H171     1.0000 0.33637  0.15830  0.76554  Biso   1.000  H 
  H172     1.0000 0.31854  0.15118  0.69821  Biso   1.000  H 
  C215     1.0000 0.30066  0.13361  0.75155  Biso   1.000  C 
  C216     1.0000 0.27539  0.17801  0.71801  Biso   1.000  C 
  O61      1.0000 0.28038  0.24450  0.76478  Biso   1.000  O 
  C217     1.0000 0.25846  0.28748  0.72015  Biso   1.000  C 
  H173     1.0000 0.26247  0.30277  0.61939  Biso   1.000  H 
  H174     1.0000 0.25852  0.33441  0.91339  Biso   1.000  H 
  H175     1.0000 0.23905  0.26122  0.72426  Biso   1.000  H 
  H176     1.0000 0.25721  0.15830  0.76554  Biso   1.000  H 
  H177     1.0000 0.23938  0.15118  0.69821  Biso   1.000  H 
  C218     1.0000 0.22150  0.13361  0.75155  Biso   1.000  C 
  H178     1.0000 0.22550  0.13569  0.85670  Biso   1.000  H 
  C219     1.0000 0.21526  0.06092  0.71054  Biso   1.000  C 
  H179     1.0000 0.21082  0.05898  0.60574  Biso   1.000  H 
  H180     1.0000 0.23297  0.03024  0.73195  Biso   1.000  H 
  H181     1.0000 0.19762  0.04298  0.76548  Biso   1.000  H 
  H182     1.0000 0.27232  0.17882  0.61201  Biso   1.000  H 
  H183     1.0000 0.30466  0.13569  0.85670  Biso   1.000  H 
  C220     1.0000 0.29443  0.06092  0.71054  Biso   1.000  C 
  H184     1.0000 0.28999  0.05898  0.60574  Biso   1.000  H 
  H185     1.0000 0.31213  0.03024  0.73195  Biso   1.000  H 
  H186     1.0000 0.27679  0.04298  0.76548  Biso   1.000  H 
  H187     1.0000 0.35148  0.17882  0.61201  Biso   1.000  H 
  H188     1.0000 0.38383  0.13569  0.85670  Biso   1.000  H 
  C221     1.0000 0.37359  0.06092  0.71054  Biso   1.000  C 
  H189     1.0000 0.36916  0.05898  0.60574  Biso   1.000  H 
  H190     1.0000 0.39130  0.03024  0.73195  Biso   1.000  H 
  H191     1.0000 0.35596  0.04298  0.76548  Biso   1.000  H 
  H192     1.0000 0.43065  0.17882  0.61201  Biso   1.000  H 
  H193     1.0000 0.46300  0.13569  0.85670  Biso   1.000  H 
  C222     1.0000 0.45276  0.06092  0.71054  Biso   1.000  C 
  H194     1.0000 0.44832  0.05898  0.60574  Biso   1.000  H 
  H195     1.0000 0.47047  0.03024  0.73195  Biso   1.000  H 
  H196     1.0000 0.43512  0.04298  0.76548  Biso   1.000  H 
  H197     1.0000 0.50982  0.17882  0.61201  Biso   1.000  H 
  H198     1.0000 0.54216  0.13569  0.85670  Biso   1.000  H 
  C223     1.0000 0.53193  0.06092  0.71054  Biso   1.000  C 
  H199     1.0000 0.52749  0.05898  0.60574  Biso   1.000  H 
  H200     1.0000 0.54963  0.03024  0.73195  Biso   1.000  H 
  H201     1.0000 0.51429  0.04298  0.76548  Biso   1.000  H 
  H202     1.0000 0.58898  0.17882  0.61201  Biso   1.000  H 
  H203     1.0000 0.62133  0.13569  0.85670  Biso   1.000  H 
  C224     1.0000 0.61109  0.06092  0.71054  Biso   1.000  C 
  H204     1.0000 0.60666  0.05898  0.60574  Biso   1.000  H 
  H205     1.0000 0.62880  0.03024  0.73195  Biso   1.000  H 
  H206     1.0000 0.59346  0.04298  0.76548  Biso   1.000  H 
  H207     1.0000 0.66815  0.17882  0.61201  Biso   1.000  H 
  H208     1.0000 0.70050  0.13569  0.85670  Biso   1.000  H 
  C225     1.0000 0.69026  0.06092  0.71054  Biso   1.000  C 
  H209     1.0000 0.68582  0.05898  0.60574  Biso   1.000  H 
  H210     1.0000 0.70797  0.03024  0.73195  Biso   1.000  H 
  H211     1.0000 0.67262  0.04298  0.76548  Biso   1.000  H 
  H212     1.0000 0.74732  0.17882  0.61201  Biso   1.000  H 
  H213     1.0000 0.77966  0.13569  0.85670  Biso   1.000  H 
  C226     1.0000 0.76943  0.06092  0.71054  Biso   1.000  C 
  H214     1.0000 0.76499  0.05898  0.60574  Biso   1.000  H 
  H215     1.0000 0.78713  0.03024  0.73195  Biso   1.000  H 
  H216     1.0000 0.75179  0.04298  0.76548  Biso   1.000  H 
  H217     1.0000 0.82648  0.17882  0.61201  Biso   1.000  H 
  C227     1.0000 0.85483  0.13361  0.75155  Biso   1.000  C 
  H218     1.0000 0.87271  0.15118  0.69821  Biso   1.000  H 
  H219     1.0000 0.85883  0.13569  0.85670  Biso   1.000  H 
  C228     1.0000 0.84859  0.06092  0.71054  Biso   1.000  C 
  H220     1.0000 0.84416  0.05898  0.60574  Biso   1.000  H 
  H221     1.0000 0.86630  0.03024  0.73195  Biso   1.000  H 
  H222     1.0000 0.83096  0.04298  0.76548  Biso   1.000  H 
  H223     1.0000 0.17935  0.33441  0.91339  Biso   1.000  H 
  H224     1.0000 0.18330  0.30277  0.61939  Biso   1.000  H 
  H225     1.0000 0.15989  0.26122  0.72426  Biso   1.000  H 
  H226     1.0000 0.19315  0.17882  0.61201  Biso   1.000  H 
  H227     1.0000 0.14633  0.13569  0.85670  Biso   1.000  H 
  C229     1.0000 0.13609  0.06092  0.71054  Biso   1.000  C 
  H228     1.0000 0.13166  0.05898  0.60574  Biso   1.000  H 
  H229     1.0000 0.15380  0.03024  0.73195  Biso   1.000  H 
  H230     1.0000 0.11846  0.04298  0.76548  Biso   1.000  H 
